Version 4
SHEET 1 1188 880
WIRE 144 -32 -96 -32
WIRE 384 -32 240 -32
WIRE 384 -16 384 -32
WIRE -96 0 -96 -32
WIRE -96 96 -96 80
WIRE 48 96 -96 96
WIRE 192 96 192 32
WIRE 192 96 128 96
WIRE 224 96 192 96
WIRE 384 96 384 64
WIRE 384 96 304 96
WIRE -96 208 -96 96
WIRE 16 208 -96 208
WIRE 192 208 192 96
WIRE 192 208 80 208
WIRE -96 368 -96 208
WIRE 384 368 384 176
WIRE 384 368 -96 368
WIRE 384 400 384 368
FLAG 384 400 0
DATAFLAG 272 -32 "$-V(N003)"
SYMBOL npn 240 32 M270
SYMATTR InstName Q1
SYMATTR Value QBC337-40
SYMBOL res 144 80 R90
WINDOW 0 0 56 VBottom 2
WINDOW 3 32 56 VTop 2
SYMATTR InstName R1
SYMATTR Value 11979
SYMBOL res 320 80 R90
WINDOW 0 0 56 VBottom 2
WINDOW 3 32 56 VTop 2
SYMATTR InstName R2
SYMATTR Value 95768
SYMBOL res 368 -32 R0
SYMATTR InstName R3
SYMATTR Value 2200
SYMBOL res -112 -16 R0
SYMATTR InstName R5
SYMATTR Value 220
SYMBOL cap 80 192 R90
WINDOW 0 0 32 VBottom 2
WINDOW 3 32 32 VTop 2
SYMATTR InstName C2
SYMATTR Value 1nF
SYMBOL voltage 384 80 R0
WINDOW 123 0 0 Left 0
WINDOW 39 0 0 Left 0
SYMATTR InstName V2
SYMATTR Value 15.2
TEXT 880 -280 Left 2 !*\n.MODEL QBC337-40 NPN( \n+    IS = 7.809E-14 \n+    NF = 0.9916 \n+    ISE = 2.069E-15 \n+    NE = 1.4 \n+    BF = 484\n+    IKF = 0.8 \n+    VAF = 103.6 \n+    NR = 0.991 \n+    ISC = 6.66E-14 \n+    NC = 1.2 \n+    BR = 44.14 \n+    IKR = 0.09 \n+    VAR = 14 \n+    RB = 70 \n+    IRB = 0.0002 \n+    RBM = 8 \n+    RE = 0.12 \n+    RC = 0.24 \n+    XTB = 0 \n+    EG = 1.11 \n+    XTI = 3 \n+    CJE = 3.579E-11 \n+    VJE = 0.6657 \n+    MJE = 0.3596 \n+    TF = 5E-10 \n+    XTF = 2.5 \n+    VTF = 2 \n+    ITF = 0.5 \n+    PTF = 88 \n+    CJC = 1.306E-11 \n+    VJC = 0.3647 \n+    MJC = 0.3658 \n+    XCJC = 0.455 \n+    TR = 2.5E-08 \n+    CJS = 0 \n+    VJS = 0.75 \n+    MJS = 0.333 \n+    FC = 0.843) \n*
TEXT -400 864 Left 2 !.op
